36811
  Marvin  12300703363D          

 45 46  0  0  1  0            999 V2000
   -3.2717   -5.4594    4.6149 O   0  0  0  0  0  0  0  0  0  0  0  0
    3.9730    7.0868   -2.0748 O   0  0  0  0  0  0  0  0  0  0  0  0
   -3.9738   -6.6952    2.3121 O   0  0  0  0  0  0  0  0  0  0  0  0
   -0.0387   -0.0539    0.6609 N   0  0  0  0  0  0  0  0  0  0  0  0
    0.2321    0.3095   -0.7638 C   0  0  1  0  0  0  0  0  0  0  0  0
    0.9334    1.6935   -0.7823 C   0  0  0  0  0  0  0  0  0  0  0  0
    1.1190    2.3147   -2.1930 C   0  0  0  0  0  0  0  0  0  0  0  0
   -0.8714   -1.2605    0.8279 C   0  0  0  0  0  0  0  0  0  0  0  0
    1.0289   -0.7835   -1.5398 C   0  0  0  0  0  0  0  0  0  0  0  0
   -1.2587   -1.7839    2.2283 C   0  0  0  0  0  0  0  0  0  0  0  0
    1.8725    3.5870   -2.1510 C   0  0  0  0  0  0  0  0  0  0  0  0
   -1.9909   -3.0930    2.2186 C   0  0  0  0  0  0  0  0  0  0  0  0
    3.2864    3.5742   -2.1142 C   0  0  0  0  0  0  0  0  0  0  0  0
    1.1987    4.8277   -2.1390 C   0  0  0  0  0  0  0  0  0  0  0  0
   -2.3188   -3.7068    3.4508 C   0  0  0  0  0  0  0  0  0  0  0  0
   -2.3783   -3.7798    1.0370 C   0  0  0  0  0  0  0  0  0  0  0  0
    4.0128    4.7765   -2.0884 C   0  0  0  0  0  0  0  0  0  0  0  0
    1.9233    6.0326   -2.1075 C   0  0  0  0  0  0  0  0  0  0  0  0
   -2.9976   -4.9429    3.5030 C   0  0  0  0  0  0  0  0  0  0  0  0
    3.3309    6.0093   -2.0892 C   0  0  0  0  0  0  0  0  0  0  0  0
   -3.0504   -5.0103    1.0706 C   0  0  0  0  0  0  0  0  0  0  0  0
   -3.3656   -5.5955    2.3069 C   0  0  0  0  0  0  0  0  0  0  0  0
   -0.7300    0.4422   -1.2709 H   0  0  0  0  0  0  0  0  0  0  0  0
    0.3311    2.3948   -0.1945 H   0  0  0  0  0  0  0  0  0  0  0  0
    1.8994    1.6027   -0.2774 H   0  0  0  0  0  0  0  0  0  0  0  0
    0.1370    2.4488   -2.6557 H   0  0  0  0  0  0  0  0  0  0  0  0
    1.6601    1.6461   -2.8632 H   0  0  0  0  0  0  0  0  0  0  0  0
   -0.5659    0.7203    1.0737 H   0  0  0  0  0  0  0  0  0  0  0  0
   -1.7961   -1.1035    0.2647 H   0  0  0  0  0  0  0  0  0  0  0  0
   -0.2955   -2.0832    0.4064 H   0  0  0  0  0  0  0  0  0  0  0  0
    1.9774   -0.9907   -1.0415 H   0  0  0  0  0  0  0  0  0  0  0  0
    1.2276   -0.5121   -2.5738 H   0  0  0  0  0  0  0  0  0  0  0  0
    0.4703   -1.7144   -1.6285 H   0  0  0  0  0  0  0  0  0  0  0  0
   -0.3362   -1.8964    2.8060 H   0  0  0  0  0  0  0  0  0  0  0  0
   -1.8672   -1.0277    2.7308 H   0  0  0  0  0  0  0  0  0  0  0  0
    3.8015    2.6890   -2.1103 H   0  0  0  0  0  0  0  0  0  0  0  0
    0.1760    4.8652   -2.1504 H   0  0  0  0  0  0  0  0  0  0  0  0
   -2.0569   -3.2492    4.3287 H   0  0  0  0  0  0  0  0  0  0  0  0
   -2.1872   -3.4172    0.1022 H   0  0  0  0  0  0  0  0  0  0  0  0
    5.0350    4.7443   -2.0704 H   0  0  0  0  0  0  0  0  0  0  0  0
    1.4159    6.9205   -2.0994 H   0  0  0  0  0  0  0  0  0  0  0  0
   -3.3032   -5.4669    0.1894 H   0  0  0  0  0  0  0  0  0  0  0  0
   -3.0439   -5.0585    5.3644 H   0  0  0  0  0  0  0  0  0  0  0  0
    4.8531    7.0822   -2.0710 H   0  0  0  0  0  0  0  0  0  0  0  0
   -4.1974   -7.0830    1.5528 H   0  0  0  0  0  0  0  0  0  0  0  0
  1 19  1  0  0  0  0
  1 43  1  0  0  0  0
  2 20  1  0  0  0  0
  2 44  1  0  0  0  0
  3 22  1  0  0  0  0
  3 45  1  0  0  0  0
  4  5  1  0  0  0  0
  4  8  1  0  0  0  0
  4 28  1  0  0  0  0
  5  6  1  0  0  0  0
  5  9  1  0  0  0  0
  5 23  1  0  0  0  0
  6  7  1  0  0  0  0
  6 24  1  0  0  0  0
  6 25  1  0  0  0  0
  7 11  1  0  0  0  0
  7 26  1  0  0  0  0
  7 27  1  0  0  0  0
  8 10  1  0  0  0  0
  8 29  1  0  0  0  0
  8 30  1  0  0  0  0
  9 31  1  0  0  0  0
  9 32  1  0  0  0  0
  9 33  1  0  0  0  0
 10 12  1  0  0  0  0
 10 34  1  0  0  0  0
 10 35  1  0  0  0  0
 11 13  2  0  0  0  0
 11 14  1  0  0  0  0
 12 15  2  0  0  0  0
 12 16  1  0  0  0  0
 13 17  1  0  0  0  0
 13 36  1  0  0  0  0
 14 18  2  0  0  0  0
 14 37  1  0  0  0  0
 15 19  1  0  0  0  0
 15 38  1  0  0  0  0
 16 21  2  0  0  0  0
 16 39  1  0  0  0  0
 17 20  2  0  0  0  0
 17 40  1  0  0  0  0
 18 20  1  0  0  0  0
 18 41  1  0  0  0  0
 19 22  2  0  0  0  0
 21 22  1  0  0  0  0
 21 42  1  0  0  0  0
M  END

> <PUBCHEM_BONDANNOTATIONS>
11  13  8
11  14  8
12  15  8
12  16  8
13  17  8
14  18  8
15  19  8
16  21  8
17  20  8
18  20  8
19  22  8
21  22  8
5  9  3

> <StdInChI>
InChI=1S/C18H23NO3/c1-13(2-3-14-4-7-16(20)8-5-14)19-11-10-15-6-9-17(21)18(22)12-15/h4-9,12-13,19-22H,2-3,10-11H2,1H3/t13-/m1/s1

> <StdInChIKey>
JRWZLRBJNMZMFE-CYBMUJFWSA-N

> <AuxInfo>
1/0/N:9,6,7,13,14,16,17,18,21,10,8,15,5,11,12,20,22,19,4,2,3,1/E:(4,5)(7,8)/it:im/rA:45cOOONCCCCCCCCCCCCCCCCCCHHHHHHHHHHHHHHHHHHHHHHH/rB:;;;s4;s5;s6;s4;s5;s8;s7;s10;d11;s11;d12;s12;s13;d14;s1s15;s2d17s18;d16;s3d19s21;s5;s6;s6;s7;s7;s4;s8;s8;s9;s9;s9;s10;s10;s13;s14;s15;s16;s17;s18;s21;s1;s2;s3;/rC:-3.2717,-5.4594,4.6149;3.973,7.0868,-2.0748;-3.9738,-6.6952,2.3121;-.0387,-.0539,.6609;.2321,.3095,-.7638;.9334,1.6935,-.7823;1.119,2.3147,-2.193;-.8714,-1.2605,.8279;1.0289,-.7835,-1.5398;-1.2587,-1.7839,2.2283;1.8725,3.587,-2.151;-1.9909,-3.093,2.2186;3.2864,3.5742,-2.1142;1.1987,4.8277,-2.139;-2.3188,-3.7068,3.4508;-2.3783,-3.7798,1.037;4.0128,4.7765,-2.0884;1.9233,6.0326,-2.1075;-2.9976,-4.9429,3.503;3.3309,6.0093,-2.0892;-3.0504,-5.0103,1.0706;-3.3656,-5.5955,2.3069;-.73,.4422,-1.2709;.3311,2.3948,-.1945;1.8994,1.6027,-.2774;.137,2.4488,-2.6557;1.6601,1.6461,-2.8632;-.5659,.7203,1.0737;-1.7961,-1.1035,.2647;-.2955,-2.0832,.4064;1.9774,-.9907,-1.0415;1.2276,-.5121,-2.5738;.4703,-1.7144,-1.6285;-.3362,-1.8964,2.806;-1.8672,-1.0277,2.7308;3.8015,2.689,-2.1103;.176,4.8652,-2.1504;-2.0569,-3.2492,4.3287;-2.1872,-3.4172,.1022;5.035,4.7443,-2.0704;1.4159,6.9205,-2.0994;-3.3032,-5.4669,.1894;-3.0439,-5.0585,5.3644;4.8531,7.0822,-2.071;-4.1974,-7.083,1.5528;

> <Formula>
C18 H23 N O3

> <Mw>
301.3801

> <LD50 rat>
2.2261 mol/kg

> <SMILES>
O([H])C1=C(C([H])=C([H])C(=C1[H])C([H])([H])C([H])([H])[N@]([H])[C@]([H])(C([H])([H])[H])C([H])([H])C([H])([H])C1C([H])=C([H])C(=C([H])C=1[H])O[H])O[H]

> <CSID>
33786

$$$$
