5816
  Marvin  12300703363D          

 26 26  0  0  1  0            999 V2000
    0.3555   -1.9447    1.1001 O   0  0  0  0  0  0  0  0  0  0  0  0
    4.1796    1.2235   -0.0641 O   0  0  0  0  0  0  0  0  0  0  0  0
    2.9293    3.6098   -0.0603 O   0  0  0  0  0  0  0  0  0  0  0  0
   -2.3366   -2.3240   -0.0510 N   0  0  0  0  0  0  0  0  0  0  0  0
   -0.0327   -1.1620   -0.0296 C   0  0  2  0  0  0  0  0  0  0  0  0
    0.7364    0.1250   -0.0393 C   0  0  0  0  0  0  0  0  0  0  0  0
   -1.5818   -1.0533   -0.0446 C   0  0  0  0  0  0  0  0  0  0  0  0
    2.1547    0.0972   -0.0540 C   0  0  0  0  0  0  0  0  0  0  0  0
    0.1233    1.4036   -0.0391 C   0  0  0  0  0  0  0  0  0  0  0  0
    2.9224    1.2817   -0.0588 C   0  0  0  0  0  0  0  0  0  0  0  0
    0.8714    2.5913   -0.0492 C   0  0  0  0  0  0  0  0  0  0  0  0
    2.2765    2.5349   -0.0565 C   0  0  0  0  0  0  0  0  0  0  0  0
   -3.8050   -2.1440   -0.0629 C   0  0  0  0  0  0  0  0  0  0  0  0
    0.2591   -1.7327   -0.9159 H   0  0  0  0  0  0  0  0  0  0  0  0
   -1.8682   -0.4924   -0.9389 H   0  0  0  0  0  0  0  0  0  0  0  0
   -1.8857   -0.4914    0.8432 H   0  0  0  0  0  0  0  0  0  0  0  0
    2.6441   -0.8022   -0.0596 H   0  0  0  0  0  0  0  0  0  0  0  0
   -0.8913    1.5153   -0.0327 H   0  0  0  0  0  0  0  0  0  0  0  0
   -2.0913   -2.8231   -0.9090 H   0  0  0  0  0  0  0  0  0  0  0  0
    0.3844    3.4914   -0.0507 H   0  0  0  0  0  0  0  0  0  0  0  0
    0.0993   -1.4221    1.8888 H   0  0  0  0  0  0  0  0  0  0  0  0
   -4.2894   -3.1195   -0.0714 H   0  0  0  0  0  0  0  0  0  0  0  0
   -4.1411   -1.6053    0.8259 H   0  0  0  0  0  0  0  0  0  0  0  0
   -4.1282   -1.5952   -0.9506 H   0  0  0  0  0  0  0  0  0  0  0  0
    4.6000    0.4506   -0.0626 H   0  0  0  0  0  0  0  0  0  0  0  0
    2.5153    4.3876   -0.0571 H   0  0  0  0  0  0  0  0  0  0  0  0
  5  1  1  0  0  0  0
  1 21  1  0  0  0  0
  2 10  1  0  0  0  0
  2 25  1  0  0  0  0
  3 12  1  0  0  0  0
  3 26  1  0  0  0  0
  4  7  1  0  0  0  0
  4 13  1  0  0  0  0
  4 19  1  0  0  0  0
  5  6  1  0  0  0  0
  5  7  1  0  0  0  0
  5 14  1  0  0  0  0
  6  8  2  0  0  0  0
  6  9  1  0  0  0  0
  7 15  1  0  0  0  0
  7 16  1  0  0  0  0
  8 10  1  0  0  0  0
  8 17  1  0  0  0  0
  9 11  2  0  0  0  0
  9 18  1  0  0  0  0
 10 12  2  0  0  0  0
 11 12  1  0  0  0  0
 11 20  1  0  0  0  0
 13 22  1  0  0  0  0
 13 23  1  0  0  0  0
 13 24  1  0  0  0  0
M  END

> <PUBCHEM_BONDANNOTATIONS>
5  1  5
10  12  8
11  12  8
6  8  8
6  9  8
8  10  8
9  11  8

> <StdInChI>
InChI=1S/C9H13NO3/c1-10-5-9(13)6-2-3-7(11)8(12)4-6/h2-4,9-13H,5H2,1H3/t9-/m0/s1

> <StdInChIKey>
UCTWMZQNUQWSLP-VIFPVBQESA-N

> <AuxInfo>
1/0/N:13,9,11,8,7,6,12,10,5,4,3,2,1/it:im/rA:26cOOONCCCCCCCCCHHHHHHHHHHHHH/rB:;;;s1;s5;s4s5;d6;s6;s2s8;d9;s3d10s11;s4;s5;s7;s7;s8;s9;s4;s11;s1;s13;s13;s13;s2;s3;/rC:.3555,-1.9447,1.1001;4.1796,1.2235,-.0641;2.9293,3.6098,-.0603;-2.3366,-2.324,-.051;-.0327,-1.162,-.0296;.7364,.125,-.0393;-1.5818,-1.0533,-.0446;2.1547,.0972,-.054;.1233,1.4036,-.0391;2.9224,1.2817,-.0588;.8714,2.5913,-.0492;2.2765,2.5349,-.0565;-3.805,-2.144,-.0629;.2591,-1.7327,-.9159;-1.8682,-.4924,-.9389;-1.8857,-.4914,.8432;2.6441,-.8022,-.0596;-.8913,1.5153,-.0327;-2.0913,-2.8231,-.909;.3844,3.4914,-.0507;.0993,-1.4221,1.8888;-4.2894,-3.1195,-.0714;-4.1411,-1.6053,.8259;-4.1282,-1.5952,-.9506;4.6,.4506,-.0626;2.5153,4.3876,-.0571;

> <Formula>
C9 H13 N O3

> <Mw>
183.2044

> <LD50 rat>
2.3715 mol/kg

> <SMILES>
O([H])[C@@]([H])(C([H])([H])[N@]([H])C([H])([H])[H])C1C([H])=C([H])C(=C(C=1[H])O[H])O[H]

> <CSID>
5611

$$$$
