3779
  Marvin  12300703363D          

 32 32  0  0  1  0            999 V2000
    0.3105   -1.1633   -1.9474 O   0  0  0  0  0  0  0  0  0  0  0  0
    3.7579    2.3964   -1.1500 O   0  0  0  0  0  0  0  0  0  0  0  0
    2.4072    4.7325   -1.1427 O   0  0  0  0  0  0  0  0  0  0  0  0
   -1.2938   -1.8176    0.3648 N   0  0  0  0  0  0  0  0  0  0  0  0
   -0.3739   -0.1117   -1.2625 C   0  0  1  0  0  0  0  0  0  0  0  0
   -0.6139   -0.5151    0.2111 C   0  0  0  0  0  0  0  0  0  0  0  0
   -1.5403   -2.3015    1.7478 C   0  0  1  0  0  0  0  0  0  0  0  0
    0.3768    1.1756   -1.2795 C   0  0  0  0  0  0  0  0  0  0  0  0
   -2.3833   -3.5961    1.6587 C   0  0  0  0  0  0  0  0  0  0  0  0
   -0.2406   -2.5361    2.5640 C   0  0  0  0  0  0  0  0  0  0  0  0
    1.7900    1.1999   -1.2363 C   0  0  0  0  0  0  0  0  0  0  0  0
   -0.3147    2.4090   -1.2505 C   0  0  0  0  0  0  0  0  0  0  0  0
    2.5004    2.4163   -1.1883 C   0  0  0  0  0  0  0  0  0  0  0  0
    0.3841    3.6277   -1.1966 C   0  0  0  0  0  0  0  0  0  0  0  0
    1.7931    3.6356   -1.1756 C   0  0  0  0  0  0  0  0  0  0  0  0
   -1.3358   -0.0069   -1.7733 H   0  0  0  0  0  0  0  0  0  0  0  0
   -1.2082    0.2544    0.7129 H   0  0  0  0  0  0  0  0  0  0  0  0
    0.3633   -0.5667    0.6952 H   0  0  0  0  0  0  0  0  0  0  0  0
   -2.1461   -1.5579    2.2758 H   0  0  0  0  0  0  0  0  0  0  0  0
   -2.2084   -1.7163   -0.0829 H   0  0  0  0  0  0  0  0  0  0  0  0
   -3.3204   -3.4131    1.1290 H   0  0  0  0  0  0  0  0  0  0  0  0
   -2.6351   -3.9636    2.6558 H   0  0  0  0  0  0  0  0  0  0  0  0
   -1.8382   -4.3813    1.1306 H   0  0  0  0  0  0  0  0  0  0  0  0
   -0.4602   -2.9635    3.5433 H   0  0  0  0  0  0  0  0  0  0  0  0
    0.4329   -3.2090    2.0296 H   0  0  0  0  0  0  0  0  0  0  0  0
    0.2866   -1.5996    2.7499 H   0  0  0  0  0  0  0  0  0  0  0  0
    2.3171    0.3222   -1.2254 H   0  0  0  0  0  0  0  0  0  0  0  0
   -1.3379    2.4323   -1.2519 H   0  0  0  0  0  0  0  0  0  0  0  0
    0.5052   -0.8170   -2.8436 H   0  0  0  0  0  0  0  0  0  0  0  0
   -0.1411    4.5053   -1.1672 H   0  0  0  0  0  0  0  0  0  0  0  0
    4.1976    1.6332   -1.1515 H   0  0  0  0  0  0  0  0  0  0  0  0
    1.9690    5.4958   -1.1435 H   0  0  0  0  0  0  0  0  0  0  0  0
  1  5  1  0  0  0  0
  1 29  1  0  0  0  0
  2 13  1  0  0  0  0
  2 31  1  0  0  0  0
  3 15  1  0  0  0  0
  3 32  1  0  0  0  0
  4  6  1  0  0  0  0
  4  7  1  0  0  0  0
  4 20  1  0  0  0  0
  5  6  1  0  0  0  0
  5  8  1  0  0  0  0
  5 16  1  0  0  0  0
  6 17  1  0  0  0  0
  6 18  1  0  0  0  0
  7  9  1  0  0  0  0
  7 10  1  0  0  0  0
  7 19  1  0  0  0  0
  8 11  2  0  0  0  0
  8 12  1  0  0  0  0
  9 21  1  0  0  0  0
  9 22  1  0  0  0  0
  9 23  1  0  0  0  0
 10 24  1  0  0  0  0
 10 25  1  0  0  0  0
 10 26  1  0  0  0  0
 11 13  1  0  0  0  0
 11 27  1  0  0  0  0
 12 14  2  0  0  0  0
 12 28  1  0  0  0  0
 13 15  2  0  0  0  0
 14 15  1  0  0  0  0
 14 30  1  0  0  0  0
M  END

> <PUBCHEM_BONDANNOTATIONS>
5  1  3
11  13  8
12  14  8
13  15  8
14  15  8
8  11  8
8  12  8

> <StdInChI>
InChI=1S/C11H17NO3/c1-7(2)12-6-11(15)8-3-4-9(13)10(14)5-8/h3-5,7,11-15H,6H2,1-2H3/t11-/m0/s1

> <StdInChIKey>
JWZZKOKVBUJMES-NSHDSACASA-N

> <AuxInfo>
1/0/N:9,10,12,14,11,6,7,8,15,13,5,4,3,2,1/E:(1,2)/it:im/rA:32cOOONCCCCCCCCCCCHHHHHHHHHHHHHHHHH/rB:;;;s1;s4s5;s4;s5;s7;s7;d8;s8;s2s11;d12;s3d13s14;s5;s6;s6;s7;s4;s9;s9;s9;s10;s10;s10;s11;s12;s1;s14;s2;s3;/rC:.3105,-1.1633,-1.9474;3.7579,2.3964,-1.15;2.4072,4.7325,-1.1427;-1.2938,-1.8176,.3648;-.3739,-.1117,-1.2625;-.6139,-.5151,.2111;-1.5403,-2.3015,1.7478;.3768,1.1756,-1.2795;-2.3833,-3.5961,1.6587;-.2406,-2.5361,2.564;1.79,1.1999,-1.2363;-.3147,2.409,-1.2505;2.5004,2.4163,-1.1883;.3841,3.6277,-1.1966;1.7931,3.6356,-1.1756;-1.3358,-.0069,-1.7733;-1.2082,.2544,.7129;.3633,-.5667,.6952;-2.1461,-1.5579,2.2758;-2.2084,-1.7163,-.0829;-3.3204,-3.4131,1.129;-2.6351,-3.9636,2.6558;-1.8382,-4.3813,1.1306;-.4602,-2.9635,3.5433;.4329,-3.209,2.0296;.2866,-1.5996,2.7499;2.3171,.3222,-1.2254;-1.3379,2.4323,-1.2519;.5052,-.817,-2.8436;-.1411,4.5053,-1.1672;4.1976,1.6332,-1.1515;1.969,5.4958,-1.1435;

> <Formula>
C11 H17 N O3

> <Mw>
211.2576

> <LD50 rat>
2.7434 mol/kg

> <SMILES>
O([H])[C@]([H])(C1C([H])=C([H])C(=C(C=1[H])O[H])O[H])C([H])([H])[N@]([H])C([H])(C([H])([H])[H])C([H])([H])[H]

> <CSID>
3647

$$$$
