6954
  Marvin  12300703363D          

 19 19  0  0  0  0            999 V2000
    1.1748   -2.1953    0.2349 O   0  0  0  0  0  0  0  0  0  0  0  0
   -2.7394   -2.3156   -0.0493 O   0  5  0  0  0  0  0  0  0  0  0  0
    3.3245    1.1537   -0.0164 O   0  5  0  0  0  0  0  0  0  0  0  0
   -1.1275   -3.3516   -0.0703 O   0  0  0  0  0  0  0  0  0  0  0  0
    3.4043   -0.7568   -0.0630 O   0  0  0  0  0  0  0  0  0  0  0  0
   -0.9810    3.5975   -0.0414 O   0  5  0  0  0  0  0  0  0  0  0  0
   -2.6590    2.6347   -0.0440 O   0  0  0  0  0  0  0  0  0  0  0  0
   -1.5674   -2.2701   -0.0414 N   0  3  0  0  0  0  0  0  0  0  0  0
    2.6916    0.1659   -0.0174 N   0  3  0  0  0  0  0  0  0  0  0  0
   -1.4940    2.5436   -0.0490 N   0  3  0  0  0  0  0  0  0  0  0  0
   -0.8371   -1.1297   -0.0163 C   0  0  0  0  0  0  0  0  0  0  0  0
    1.3390    0.1132    0.0045 C   0  0  0  0  0  0  0  0  0  0  0  0
    0.5845   -1.0937    0.0674 C   0  0  0  0  0  0  0  0  0  0  0  0
   -0.8243    1.3740   -0.0500 C   0  0  0  0  0  0  0  0  0  0  0  0
   -1.4911    0.1271   -0.0599 C   0  0  0  0  0  0  0  0  0  0  0  0
    0.5881    1.3155   -0.0390 C   0  0  0  0  0  0  0  0  0  0  0  0
   -2.5134    0.1415   -0.0928 H   0  0  0  0  0  0  0  0  0  0  0  0
    1.0942    2.2046   -0.0590 H   0  0  0  0  0  0  0  0  0  0  0  0
    2.0333   -2.2583    0.4024 H   0  0  0  0  0  0  0  0  0  0  0  0
  1 13  1  0  0  0  0
  1 19  1  0  0  0  0
  2  8  1  0  0  0  0
  3  9  1  0  0  0  0
  4  8  2  0  0  0  0
  5  9  2  0  0  0  0
  6 10  1  0  0  0  0
  7 10  2  0  0  0  0
  8 11  1  0  0  0  0
  9 12  1  0  0  0  0
 10 14  1  0  0  0  0
 11 13  2  0  0  0  0
 11 15  1  0  0  0  0
 12 13  1  0  0  0  0
 12 16  2  0  0  0  0
 14 15  2  0  0  0  0
 14 16  1  0  0  0  0
 15 17  1  0  0  0  0
 16 18  1  0  0  0  0
M  CHG  6   2  -1   3  -1   6  -1   8   1   9   1  10   1
M  END

> <PUBCHEM_BONDANNOTATIONS>
11  13  8
11  15  8
12  13  8
12  16  8
14  15  8
14  16  8

> <StdInChI>
InChI=1S/C6H3N3O7/c10-6-4(8(13)14)1-3(7(11)12)2-5(6)9(15)16/h1-2,10H

> <StdInChIKey>
OXNIZHLAWKMVMX-UHFFFAOYSA-N

> <AuxInfo>
1/0/N:15,16,14,11,12,13,10,8,9,1,6,7,2,4,3,5/E:(1,2)(4,5)(8,9)(11,12)(13,14,15,16)/CRV:7.5,8.5,9.5/rA:19nOO-O-OOO-ON+N+N+CCCCCCHHH/rB:;;;;;;s2d4;s3d5;s6d7;s8;s9;s1d11s12;s10;s11d14;d12s14;s15;s16;s1;/rC:1.1748,-2.1953,.2349;-2.7394,-2.3156,-.0493;3.3245,1.1537,-.0164;-1.1275,-3.3516,-.0703;3.4043,-.7568,-.063;-.981,3.5975,-.0414;-2.659,2.6347,-.044;-1.5674,-2.2701,-.0414;2.6916,.1659,-.0174;-1.494,2.5436,-.049;-.8371,-1.1297,-.0163;1.339,.1132,.0045;.5845,-1.0937,.0674;-.8243,1.374,-.05;-1.4911,.1271,-.0599;.5881,1.3155,-.039;-2.5134,.1415,-.0928;1.0942,2.2046,-.059;2.0333,-2.2583,.4024;

> <Formula>
C6 H3 N3 O7

> <Mw>
229.1039

> <SMILES>
O([H])C1C(=C([H])C(=C([H])C=1[N+](=O)[O-])[N+](=O)[O-])[N+](=O)[O-]

> <CSID>
6688

$$$$
